/*--------------------------------*- C++ -*----------------------------------*\
| =========                 |                                                 |
| \\      /  F ield         | OpenFOAM: The Open Source CFD Toolbox           |
|  \\    /   O peration     | Version:  2506                                  |
|   \\  /    A nd           | Website:  www.openfoam.com                      |
|    \\/     M anipulation  |                                                 |
\*---------------------------------------------------------------------------*/
FoamFile
{
    version     2.0;
    format      ascii;
    arch        "LSB;label=32;scalar=64";
    class       polyBoundaryMesh;
    location    "constant/polyMesh";
    object      boundary;
}
// * * * * * * * * * * * * * * * * * * * * * * * * * * * * * * * * * * * * * //

11
(
    outlet
    {
        type            patch;
        nFaces          0;
        startFace       7371;
    }
    walls
    {
        type            wall;
        inGroups        1(wall);
        nFaces          159;
        startFace       7371;
    }
    inlet
    {
        type            patch;
        nFaces          36;
        startFace       7530;
    }
    model
    {
        type            wall;
        inGroups        1(wall);
        nFaces          223;
        startFace       7566;
    }
    procBoundary3to1
    {
        type            processor;
        inGroups        1(processor);
        nFaces          15;
        startFace       7789;
        matchTolerance  0.0001;
        transform       unknown;
        myProcNo        3;
        neighbProcNo    1;
    }
    procBoundary3to2
    {
        type            processor;
        inGroups        1(processor);
        nFaces          93;
        startFace       7804;
        matchTolerance  0.0001;
        transform       unknown;
        myProcNo        3;
        neighbProcNo    2;
    }
    procBoundary3to4
    {
        type            processor;
        inGroups        1(processor);
        nFaces          176;
        startFace       7897;
        matchTolerance  0.0001;
        transform       unknown;
        myProcNo        3;
        neighbProcNo    4;
    }
    procBoundary3to5
    {
        type            processor;
        inGroups        1(processor);
        nFaces          57;
        startFace       8073;
        matchTolerance  0.0001;
        transform       unknown;
        myProcNo        3;
        neighbProcNo    5;
    }
    procBoundary3to6
    {
        type            processor;
        inGroups        1(processor);
        nFaces          51;
        startFace       8130;
        matchTolerance  0.0001;
        transform       unknown;
        myProcNo        3;
        neighbProcNo    6;
    }
    procBoundary3to7
    {
        type            processor;
        inGroups        1(processor);
        nFaces          153;
        startFace       8181;
        matchTolerance  0.0001;
        transform       unknown;
        myProcNo        3;
        neighbProcNo    7;
    }
    procBoundary3to8
    {
        type            processor;
        inGroups        1(processor);
        nFaces          3;
        startFace       8334;
        matchTolerance  0.0001;
        transform       unknown;
        myProcNo        3;
        neighbProcNo    8;
    }
)

// ************************************************************************* //
