/*--------------------------------*- C++ -*----------------------------------*\
| =========                 |                                                 |
| \\      /  F ield         | OpenFOAM: The Open Source CFD Toolbox           |
|  \\    /   O peration     | Version:  2506                                  |
|   \\  /    A nd           | Website:  www.openfoam.com                      |
|    \\/     M anipulation  |                                                 |
\*---------------------------------------------------------------------------*/
FoamFile
{
    version     2.0;
    format      ascii;
    arch        "LSB;label=32;scalar=64";
    class       volScalarField;
    location    "0";
    object      k;
}
// * * * * * * * * * * * * * * * * * * * * * * * * * * * * * * * * * * * * * //

dimensions      [0 2 -2 0 0 0 0];

internalField   uniform 0.375;

boundaryField
{
    outlet
    {
        type            zeroGradient;
    }
    walls
    {
        type            kqRWallFunction;
        value           uniform 0.375;
    }
    inlet
    {
        type            fixedValue;
        value           uniform 0.375;
    }
    model
    {
        type            kqRWallFunction;
        value           uniform 0.375;
    }
    procBoundary3to1
    {
        type            processor;
        value           uniform 0.375;
    }
    procBoundary3to2
    {
        type            processor;
        value           uniform 0.375;
    }
    procBoundary3to4
    {
        type            processor;
        value           uniform 0.375;
    }
    procBoundary3to5
    {
        type            processor;
        value           uniform 0.375;
    }
    procBoundary3to6
    {
        type            processor;
        value           uniform 0.375;
    }
    procBoundary3to7
    {
        type            processor;
        value           uniform 0.375;
    }
    procBoundary3to8
    {
        type            processor;
        value           uniform 0.375;
    }
}


// ************************************************************************* //
