/*--------------------------------*- C++ -*----------------------------------*\
| =========                 |                                                 |
| \\      /  F ield         | OpenFOAM: The Open Source CFD Toolbox           |
|  \\    /   O peration     | Version:  2506                                  |
|   \\  /    A nd           | Website:  www.openfoam.com                      |
|    \\/     M anipulation  |                                                 |
\*---------------------------------------------------------------------------*/
FoamFile
{
    version     2.0;
    format      ascii;
    arch        "LSB;label=32;scalar=64";
    class       polyBoundaryMesh;
    location    "constant/polyMesh";
    object      boundary;
}
// * * * * * * * * * * * * * * * * * * * * * * * * * * * * * * * * * * * * * //

10
(
    outlet
    {
        type            patch;
        nFaces          0;
        startFace       7606;
    }
    walls
    {
        type            wall;
        inGroups        1(wall);
        nFaces          28;
        startFace       7606;
    }
    inlet
    {
        type            patch;
        nFaces          0;
        startFace       7634;
    }
    model
    {
        type            wall;
        inGroups        1(wall);
        nFaces          136;
        startFace       7634;
    }
    procBoundary2to1
    {
        type            processor;
        inGroups        1(processor);
        nFaces          103;
        startFace       7770;
        matchTolerance  0.0001;
        transform       unknown;
        myProcNo        2;
        neighbProcNo    1;
    }
    procBoundary2to3
    {
        type            processor;
        inGroups        1(processor);
        nFaces          93;
        startFace       7873;
        matchTolerance  0.0001;
        transform       unknown;
        myProcNo        2;
        neighbProcNo    3;
    }
    procBoundary2to4
    {
        type            processor;
        inGroups        1(processor);
        nFaces          118;
        startFace       7966;
        matchTolerance  0.0001;
        transform       unknown;
        myProcNo        2;
        neighbProcNo    4;
    }
    procBoundary2to5
    {
        type            processor;
        inGroups        1(processor);
        nFaces          94;
        startFace       8084;
        matchTolerance  0.0001;
        transform       unknown;
        myProcNo        2;
        neighbProcNo    5;
    }
    procBoundary2to7
    {
        type            processor;
        inGroups        1(processor);
        nFaces          6;
        startFace       8178;
        matchTolerance  0.0001;
        transform       unknown;
        myProcNo        2;
        neighbProcNo    7;
    }
    procBoundary2to8
    {
        type            processor;
        inGroups        1(processor);
        nFaces          2;
        startFace       8184;
        matchTolerance  0.0001;
        transform       unknown;
        myProcNo        2;
        neighbProcNo    8;
    }
)

// ************************************************************************* //
