/*--------------------------------*- C++ -*----------------------------------*\
| =========                 |                                                 |
| \\      /  F ield         | OpenFOAM: The Open Source CFD Toolbox           |
|  \\    /   O peration     | Version:  2506                                  |
|   \\  /    A nd           | Website:  www.openfoam.com                      |
|    \\/     M anipulation  |                                                 |
\*---------------------------------------------------------------------------*/
FoamFile
{
    version     2.0;
    format      ascii;
    arch        "LSB;label=32;scalar=64";
    class       polyBoundaryMesh;
    location    "constant/polyMesh";
    object      boundary;
}
// * * * * * * * * * * * * * * * * * * * * * * * * * * * * * * * * * * * * * //

12
(
    outlet
    {
        type            patch;
        nFaces          0;
        startFace       7237;
    }
    walls
    {
        type            wall;
        inGroups        1(wall);
        nFaces          630;
        startFace       7237;
    }
    inlet
    {
        type            patch;
        nFaces          0;
        startFace       7867;
    }
    model
    {
        type            wall;
        inGroups        1(wall);
        nFaces          129;
        startFace       7867;
    }
    procBoundary1to0
    {
        type            processor;
        inGroups        1(processor);
        nFaces          151;
        startFace       7996;
        matchTolerance  0.0001;
        transform       unknown;
        myProcNo        1;
        neighbProcNo    0;
    }
    procBoundary1to2
    {
        type            processor;
        inGroups        1(processor);
        nFaces          103;
        startFace       8147;
        matchTolerance  0.0001;
        transform       unknown;
        myProcNo        1;
        neighbProcNo    2;
    }
    procBoundary1to3
    {
        type            processor;
        inGroups        1(processor);
        nFaces          15;
        startFace       8250;
        matchTolerance  0.0001;
        transform       unknown;
        myProcNo        1;
        neighbProcNo    3;
    }
    procBoundary1to4
    {
        type            processor;
        inGroups        1(processor);
        nFaces          43;
        startFace       8265;
        matchTolerance  0.0001;
        transform       unknown;
        myProcNo        1;
        neighbProcNo    4;
    }
    procBoundary1to5
    {
        type            processor;
        inGroups        1(processor);
        nFaces          57;
        startFace       8308;
        matchTolerance  0.0001;
        transform       unknown;
        myProcNo        1;
        neighbProcNo    5;
    }
    procBoundary1to7
    {
        type            processor;
        inGroups        1(processor);
        nFaces          6;
        startFace       8365;
        matchTolerance  0.0001;
        transform       unknown;
        myProcNo        1;
        neighbProcNo    7;
    }
    procBoundary1to8
    {
        type            processor;
        inGroups        1(processor);
        nFaces          109;
        startFace       8371;
        matchTolerance  0.0001;
        transform       unknown;
        myProcNo        1;
        neighbProcNo    8;
    }
    procBoundary1to10
    {
        type            processor;
        inGroups        1(processor);
        nFaces          67;
        startFace       8480;
        matchTolerance  0.0001;
        transform       unknown;
        myProcNo        1;
        neighbProcNo    10;
    }
)

// ************************************************************************* //
