/*--------------------------------*- C++ -*----------------------------------*\
| =========                 |                                                 |
| \\      /  F ield         | OpenFOAM: The Open Source CFD Toolbox           |
|  \\    /   O peration     | Version:  2506                                  |
|   \\  /    A nd           | Website:  www.openfoam.com                      |
|    \\/     M anipulation  |                                                 |
\*---------------------------------------------------------------------------*/
FoamFile
{
    version     2.0;
    format      ascii;
    arch        "LSB;label=32;scalar=64";
    class       polyBoundaryMesh;
    location    "constant/polyMesh";
    object      boundary;
}
// * * * * * * * * * * * * * * * * * * * * * * * * * * * * * * * * * * * * * //

8
(
    outlet
    {
        type            patch;
        nFaces          0;
        startFace       7552;
    }
    walls
    {
        type            wall;
        inGroups        1(wall);
        nFaces          146;
        startFace       7552;
    }
    inlet
    {
        type            patch;
        nFaces          0;
        startFace       7698;
    }
    model
    {
        type            wall;
        inGroups        1(wall);
        nFaces          73;
        startFace       7698;
    }
    procBoundary11to6
    {
        type            processor;
        inGroups        1(processor);
        nFaces          128;
        startFace       7771;
        matchTolerance  0.0001;
        transform       unknown;
        myProcNo        11;
        neighbProcNo    6;
    }
    procBoundary11to8
    {
        type            processor;
        inGroups        1(processor);
        nFaces          46;
        startFace       7899;
        matchTolerance  0.0001;
        transform       unknown;
        myProcNo        11;
        neighbProcNo    8;
    }
    procBoundary11to9
    {
        type            processor;
        inGroups        1(processor);
        nFaces          138;
        startFace       7945;
        matchTolerance  0.0001;
        transform       unknown;
        myProcNo        11;
        neighbProcNo    9;
    }
    procBoundary11to10
    {
        type            processor;
        inGroups        1(processor);
        nFaces          265;
        startFace       8083;
        matchTolerance  0.0001;
        transform       unknown;
        myProcNo        11;
        neighbProcNo    10;
    }
)

// ************************************************************************* //
