/*--------------------------------*- C++ -*----------------------------------*\
| =========                 |                                                 |
| \\      /  F ield         | OpenFOAM: The Open Source CFD Toolbox           |
|  \\    /   O peration     | Version:  v2506                                 |
|   \\  /    A nd           | Website:  www.openfoam.com                      |
|    \\/     M anipulation  |                                                 |
\*---------------------------------------------------------------------------*/
FoamFile
{
    version     2.0;
    format      ascii;
    class       dictionary;
    object      fvSolution;
}
// * * * * * * * * * * * * * * * * * * * * * * * * * * * * * * * * * * * * //

solvers
{
    p
    {
        solver          GAMG;
        smoother        GaussSeidel;
        tolerance       1e-06;
        relTol          0.1;
    }

    pFinal
    {
        $p;
        relTol          0;
    }

    "(U|k|omega|epsilon)"
    {
        solver          smoothSolver;
        smoother        symGaussSeidel;
        tolerance       1e-06;
        relTol          0.1;
    }

    "(U|k|omega|epsilon)Final"
    {
        $U;
        relTol          0;
    }
}

SIMPLE
{
    nNonOrthogonalCorrectors 1;
    consistent      yes;

    residualControl
    {
        p               0.0001;
        U               0.0001;
        "(k|omega|epsilon)" 1e-4;
    }
}

PIMPLE
{
    nOuterCorrectors 2;
    nCorrectors 2;
    nNonOrthogonalCorrectors 1;
}

relaxationFactors
{
    fields
    {
        p               0.0001;
    }
    equations
    {
        U               0.0001;
        k               0.7;
        omega           0.7;
        epsilon         0.7;
    }
}

// ************************************************************************* //
