/*--------------------------------*- C++ -*----------------------------------*\
| =========                 |                                                 |
| \\      /  F ield         | OpenFOAM: The Open Source CFD Toolbox           |
|  \\    /   O peration     | Version:  2506                                  |
|   \\  /    A nd           | Website:  www.openfoam.com                      |
|    \\/     M anipulation  |                                                 |
\*---------------------------------------------------------------------------*/
FoamFile
{
    version     2.0;
    format      ascii;
    arch        "LSB;label=32;scalar=64";
    class       polyBoundaryMesh;
    location    "constant/polyMesh";
    object      boundary;
}
// * * * * * * * * * * * * * * * * * * * * * * * * * * * * * * * * * * * * * //

8
(
    outlet
    {
        type            patch;
        nFaces          0;
        startFace       7683;
    }
    walls
    {
        type            wall;
        inGroups        1(wall);
        nFaces          30;
        startFace       7683;
    }
    inlet
    {
        type            patch;
        nFaces          0;
        startFace       7713;
    }
    model
    {
        type            wall;
        inGroups        1(wall);
        nFaces          136;
        startFace       7713;
    }
    procBoundary9to6
    {
        type            processor;
        inGroups        1(processor);
        nFaces          131;
        startFace       7849;
        matchTolerance  0.0001;
        transform       unknown;
        myProcNo        9;
        neighbProcNo    6;
    }
    procBoundary9to8
    {
        type            processor;
        inGroups        1(processor);
        nFaces          43;
        startFace       7980;
        matchTolerance  0.0001;
        transform       unknown;
        myProcNo        9;
        neighbProcNo    8;
    }
    procBoundary9to10
    {
        type            processor;
        inGroups        1(processor);
        nFaces          120;
        startFace       8023;
        matchTolerance  0.0001;
        transform       unknown;
        myProcNo        9;
        neighbProcNo    10;
    }
    procBoundary9to11
    {
        type            processor;
        inGroups        1(processor);
        nFaces          138;
        startFace       8143;
        matchTolerance  0.0001;
        transform       unknown;
        myProcNo        9;
        neighbProcNo    11;
    }
)

// ************************************************************************* //
