/*--------------------------------*- C++ -*----------------------------------*\
| =========                 |                                                 |
| \\      /  F ield         | OpenFOAM: The Open Source CFD Toolbox           |
|  \\    /   O peration     | Version:  v2506                                 |
|   \\  /    A nd           | Website:  www.openfoam.com                      |
|    \\/     M anipulation  |                                                 |
\*---------------------------------------------------------------------------*/
FoamFile
{
    version     2.0;
    format      ascii;
    class       volScalarField;
    object      p;
}
// * * * * * * * * * * * * * * * * * * * * * * * * * * * * * * * * * * * * * //

dimensions      [0 2 -2 0 0 0 0];

internalField   uniform 0;

boundaryField
{
    inlet_stator
    {
        type            zeroGradient;
    }

    inlet_rotor
    {
        type            zeroGradient;
    }

    outlet_stator
    {
        type            fixedValue;
        value           uniform 0;
    }

    outlet_rotor
    {
        type            fixedValue;
        value           uniform 0;
    }

    outerWall
    {
        type            zeroGradient;
    }

    propellerWalls
    {
        type            zeroGradient;
    }

    statorAMI
    {
        type            cyclicAMI;
        neighbourPatch  rotorAMI;
        value           $internalField;
    }

    rotorAMI
    {
        type            cyclicAMI;
        neighbourPatch  statorAMI;
        value           $internalField;
    }
}

// ************************************************************************* //
