/*--------------------------------*- C++ -*----------------------------------*\
| =========                 |                                                 |
| \\      /  F ield         | OpenFOAM: The Open Source CFD Toolbox           |
|  \\    /   O peration     | Version:  2506                                  |
|   \\  /    A nd           | Website:  www.openfoam.com                      |
|    \\/     M anipulation  |                                                 |
\*---------------------------------------------------------------------------*/
FoamFile
{
    version     2.0;
    format      ascii;
    arch        "LSB;label=32;scalar=64";
    class       polyBoundaryMesh;
    location    "constant/polyMesh";
    object      boundary;
}
// * * * * * * * * * * * * * * * * * * * * * * * * * * * * * * * * * * * * * //

8
(
    outlet
    {
        type            patch;
        nFaces          0;
        startFace       7426;
    }
    walls
    {
        type            wall;
        inGroups        1(wall);
        nFaces          75;
        startFace       7426;
    }
    inlet
    {
        type            patch;
        nFaces          0;
        startFace       7501;
    }
    model
    {
        type            wall;
        inGroups        1(wall);
        nFaces          213;
        startFace       7501;
    }
    procBoundary10to1
    {
        type            processor;
        inGroups        1(processor);
        nFaces          67;
        startFace       7714;
        matchTolerance  0.0001;
        transform       unknown;
        myProcNo        10;
        neighbProcNo    1;
    }
    procBoundary10to8
    {
        type            processor;
        inGroups        1(processor);
        nFaces          100;
        startFace       7781;
        matchTolerance  0.0001;
        transform       unknown;
        myProcNo        10;
        neighbProcNo    8;
    }
    procBoundary10to9
    {
        type            processor;
        inGroups        1(processor);
        nFaces          120;
        startFace       7881;
        matchTolerance  0.0001;
        transform       unknown;
        myProcNo        10;
        neighbProcNo    9;
    }
    procBoundary10to11
    {
        type            processor;
        inGroups        1(processor);
        nFaces          265;
        startFace       8001;
        matchTolerance  0.0001;
        transform       unknown;
        myProcNo        10;
        neighbProcNo    11;
    }
)

// ************************************************************************* //
